/*--------------------------------*- C++ -*----------------------------------*\
  =========                 |
  \\      /  F ield         | OpenFOAM: The Open Source CFD Toolbox
   \\    /   O peration     | Website:  https://openfoam.org
    \\  /    A nd           | Version:  13
     \\/     M anipulation  |
\*---------------------------------------------------------------------------*/
FoamFile
{
    format      ascii;
    class       volScalarField;
    location    "0/fluid";
    object      k;
}
// * * * * * * * * * * * * * * * * * * * * * * * * * * * * * * * * * * * * * //

dimensions      [0 2 -2 0 0 0 0];

internalField   uniform 0.004;

boundaryField
{
    fluidInlet
    {
        type            turbulentIntensityKineticEnergyInlet;
        intensity       0.005;
        value           $internalField;
    }
    fluidOutlet
    {
        type            inletOutlet;
        phi             phi;
        inletValue      $internalField;
        value           $internalField;
    }
    fluid_to_solid
    {
        type            kqRWallFunction;
        value           $internalField;
    }
    "cyclicFluid(Left|Right)"
    {
        type            cyclic;
    }
}


// ************************************************************************* //
