/*--------------------------------*- C++ -*----------------------------------*\
  =========                 |
  \\      /  F ield         | OpenFOAM: The Open Source CFD Toolbox
   \\    /   O peration     | Website:  https://openfoam.org
    \\  /    A nd           | Version:  13
     \\/     M anipulation  |
\*---------------------------------------------------------------------------*/
FoamFile
{
    format      ascii;
    class       volScalarField;
    location    "0/fluid";
    object      T;
}
// * * * * * * * * * * * * * * * * * * * * * * * * * * * * * * * * * * * * * //


dimensions      [ 0 0 0 1 0 0 0 ];

#include "../../constant/userParameters"

internalField    uniform $solidTemperature;

boundaryField
{
    #includeEtc "caseDicts/setConstraintTypes"

    fluidInlet
    {
        type            fixedValue;
        value           uniform $fluidTemperature;
    }
    fluidOutlet
    {
        type            inletOutlet;
        value           uniform $fluidTemperature;
        inletValue      uniform $fluidTemperature;
    }
    fluid_to_solid
    {
        type            coupledTemperature;
        value           uniform $fluidTemperature;
    }
    "cyclicFluid(Left|Right)"
    {
        type            cyclic;
    }
}


// ************************************************************************* //
