% ---------------------------------------------------------------------
% SOLVER
% ---------------------------------------------------------------------

% SOLVER                 = RANS
% KIND_TURB_MODEL        = SST
% REYNOLDS_NUMBER        = 6341.518061
% REF_LENGTH             = 0.06
% REF_AREA               = 0.0028274328
% FLUID_MODEL            = STANDARD_AIR
% FLUID_NAME             = air
% INIT_OPTION            = REYNOLDS
% FREESTREAM_OPTION      = TEMPERATURE_FS
% FREESTREAM_PRESSURE    = 101325.0
% FREESTREAM_TEMPERATURE = 873.15
% INLET_TYPE             = MASS_FLOW
% MARKER_INLET           = ( fluid_inlet, 0.404218598, 10.0, 0.0, 0.0, 1.0 )
% MARKER_OUTLET          = ( fluid_outlet, 101325.0 )

SOLVER                 = INC_RANS
KIND_TURB_MODEL        = SST
INC_ENERGY_EQUATION    = YES
INC_DENSITY_MODEL      = VARIABLE
FLUID_MODEL            = INC_IDEAL_GAS
REF_DIMENSIONALIZATION = DIMENSIONAL
INC_NONDIM             = DIMENSIONAL
INC_INLET_TYPE         = VELOCITY_INLET
INC_OUTLET_TYPE        = PRESSURE_OUTLET

% XXX machine generated entries!
INC_TEMPERATURE_INIT   = 873.15
INC_DENSITY_INIT       = 0.40266976445272457
INC_VELOCITY_INIT      = (0.0, 0.0, 10.524707279601818)
MARKER_INLET           = ( fluid_inlet, 873.15, 10.524707279601818, 0.0, 0.0, 1.0 )
MARKER_OUTLET          = ( fluid_outlet, 0.0)
MARKER_INTERNAL        = ( fluid )

% ---------------------------------------------------------------------
% MATERIAL PROPERTIES
% ---------------------------------------------------------------------

% SPECIFIC_HEAT_CP    = 1004.703
% MOLECULAR_WEIGHT    = 28.96

% VISCOSITY_MODEL     = CONSTANT_VISCOSITY
% MU_CONSTANT         = 4.0e-05

VISCOSITY_MODEL     = SUTHERLAND
MU_REF              = 1.716E-5
MU_T_REF            = 273.15
SUTHERLAND_CONSTANT = 110.4

CONDUCTIVITY_MODEL  = CONSTANT_PRANDTL
THERMAL_CONDUCTIVITY_CONSTANT = 0.0257
PRANDTL_LAM  = 0.72
PRANDTL_TURB = 0.90

% ---------------------------------------------------------------------
% NUMERICAL
% ---------------------------------------------------------------------

% CFL_NUMBER           = 10.0
% MUSCL_FLOW           = YES
% CONV_NUM_METHOD_FLOW = FDS
% CONV_RESIDUAL_MINVAL = -12

% ---------------------------------------------------------------------
% INPUT/OUTPUT INFORMATION
% ---------------------------------------------------------------------

CONV_FILENAME  = history_fluid
MESH_FILENAME  = mesh_fluid.su2

% -------------

NUM_METHOD_GRAD= GREEN_GAUSS
%

LINEAR_SOLVER             = FGMRES
LINEAR_SOLVER_PREC        = ILU
LINEAR_SOLVER_ILU_FILL_IN = 0
LINEAR_SOLVER_ERROR       = 1E-15
LINEAR_SOLVER_ITER        = 20
%

CONV_NUM_METHOD_FLOW = FDS
MUSCL_FLOW           = YES
SLOPE_LIMITER_FLOW   = NONE
TIME_DISCRE_FLOW     = EULER_IMPLICIT
%

CONV_RESIDUAL_MINVAL= -19
CONV_STARTITER      = 10
CONV_CAUCHY_ELEMS   = 100
CONV_CAUCHY_EPS     = 1E-6
