% ---------------------------------------------------------------------
% SOLVER
% ---------------------------------------------------------------------

% SOLVER                 = RANS
% KIND_TURB_MODEL        = SST
% REYNOLDS_NUMBER        = 6341.518061
% REF_LENGTH             = 0.06
% REF_AREA               = 0.0028274328
% FLUID_MODEL            = STANDARD_AIR
% FLUID_NAME             = air
% INIT_OPTION            = REYNOLDS
% FREESTREAM_OPTION      = TEMPERATURE_FS
% FREESTREAM_PRESSURE    = 101325.0
% FREESTREAM_TEMPERATURE = 873.15
% INLET_TYPE             = MASS_FLOW
% MARKER_INLET           = ( fluid_inlet, 0.404218598, 10.0, 0.0, 0.0, 1.0 )
% MARKER_OUTLET          = ( fluid_outlet, 101325.0 )

SOLVER                 = INC_RANS
KIND_TURB_MODEL        = SST
INC_ENERGY_EQUATION    = YES
INC_DENSITY_MODEL      = VARIABLE
FLUID_MODEL            = INC_IDEAL_GAS
REF_DIMENSIONALIZATION = DIMENSIONAL
INC_NONDIM             = DIMENSIONAL
INC_TEMPERATURE_INIT   = 873.15
INC_DENSITY_INIT       = 0.404218598
INC_VELOCITY_INIT      = (0.0, 0.0, 10.0)
INC_INLET_TYPE         = VELOCITY_INLET
INC_OUTLET_TYPE        = PRESSURE_OUTLET
MARKER_INLET           = ( fluid_inlet, 873.15, 10.0, 0.0, 0.0, 1.0 )
MARKER_OUTLET          = ( fluid_outlet, 0.0)
MARKER_INTERNAL        = ( fluid )
MARKER_SYM             = ( fluid_sym_main, fluid_sym_slice )
MARKER_HEATFLUX        = ( hole_wall, 0.0 )

% ---------------------------------------------------------------------
% MATERIAL PROPERTIES
% ---------------------------------------------------------------------

% MOLECULAR_WEIGHT    = 28.96

VISCOSITY_MODEL     = SUTHERLAND
MU_REF              = 1.716E-5
MU_T_REF            = 273.15
SUTHERLAND_CONSTANT = 110.4

% VISCOSITY_MODEL = CONSTANT_VISCOSITY
% MU_CONSTANT     = 4.0e-05

% ---------------------------------------------------------------------
% NUMERICAL
% ---------------------------------------------------------------------

CFL_NUMBER           = 10.0
MUSCL_FLOW           = YES
CONV_NUM_METHOD_FLOW = FDS
CONV_RESIDUAL_MINVAL = -12

% ---------------------------------------------------------------------
% INPUT/OUTPUT INFORMATION
% ---------------------------------------------------------------------

CONV_FILENAME  = history_fluid
MESH_FILENAME  = honeycomb_1_12_fluid.su2
