% ---------------------------------------------------------------------
% SOLVER
% ---------------------------------------------------------------------

SOLVER = HEAT_EQUATION

% ---------------------------------------------------------------------
% INITIAL/BOUNDARY CONDITIONS
% ---------------------------------------------------------------------

REF_DIMENSIONALIZATION = DIMENSIONAL
INC_NONDIM             = DIMENSIONAL
FREESTREAM_TEMPERATURE = 300.0

MARKER_INTERNAL = ( solid )
MARKER_HEATFLUX = ( solid_inlet, 0.0, solid_outlet, 0.0 )
MARKER_SYM      = ( solid_sym_main, solid_sym_outer, solid_sym_slice )

% ---------------------------------------------------------------------
% MATERIAL PROPERTIES
% ---------------------------------------------------------------------

MATERIAL_DENSITY              = 2800
SPECIFIC_HEAT_CP              = 1000
THERMAL_CONDUCTIVITY_CONSTANT = 2

% ---------------------------------------------------------------------
% NUMERICAL
% ---------------------------------------------------------------------

CFL_NUMBER       = 100.0
TIME_DISCRE_HEAT = EULER_IMPLICIT

% ---------------------------------------------------------------------
% INPUT/OUTPUT INFORMATION
% ---------------------------------------------------------------------

CONV_FILENAME  = history_solid
MESH_FILENAME  = honeycomb_1_12_solid.su2
