/*--------------------------------*- C++ -*----------------------------------*\
  =========                 |
  \\      /  F ield         | OpenFOAM: The Open Source CFD Toolbox
   \\    /   O peration     | Website:  https://openfoam.org
    \\  /    A nd           | Version:  13
     \\/     M anipulation  |
\*---------------------------------------------------------------------------*/
FoamFile
{
    format      ascii;
    class       dictionary;
    location    "constant/cylinderHead";
    object      physicalProperties;
}
// * * * * * * * * * * * * * * * * * * * * * * * * * * * * * * * * * * * * * //

thermoType  constSolidThermo;

rho
{
    type        uniform;
    value       2800.0;
}

Cv
{
    type        uniform;
    value       1000.0;
}

kappa
{
    type        uniform;
    value       2.0;
}

// ************************************************************************* //
